Questionable use of curly braces in ".model sir870adp vdmos(rg=3 vto=2.9 rd=3.2m rs=1.5m rb={m} kp=100 mtriode=1.85 cgdmax=1.4n cgdmin=70p cgs=2.9n cjo=3.6n m=.4 a=.7 vj=.7 lambda=20m is=3p ksubthres=.08 mfg=siliconix vds=100 ron=5.5m qg=53.5n)"
    Error: undefined symbol in: "[m]"
Circuit: * C:\Users\nico\Documents\CalientaManos\CircuitoControl.asc

V4: Missing value, assumed 0V @ DC
Direct Newton iteration failed to find .op point.  (Use ".option noopiter" to skip.)
Starting Gmin stepping
Gmin = 10
Gmin = 1.07374
Gmin = 0.115292
Gmin = 0.0123794
Gmin = 0.00132923
Gmin = 0.000142725
vernier = 0.5
vernier = 0.25
vernier = 0.125
Gmin = 9.26283e-005
vernier = 0.0625
vernier = 0.03125
vernier = 0.015625
Gmin = 9.11951e-005
vernier = 0.0208333
vernier = 0.0277778
Gmin = 8.62433e-005
vernier = 0.0138889
vernier = 0.00694444
Gmin = 8.47619e-005
vernier = 0.00925925
vernier = 0.0123457
Gmin = 8.26814e-005
vernier = 0.0164609
vernier = 0.0219478
Gmin = 7.94904e-005
vernier = 0.0292638
Gmin = 7.45769e-005
vernier = 0.0390184
vernier = 0.0520245
Gmin = 6.71904e-005
vernier = 0.0693659
vernier = 0.0924879
Gmin = 5.69827e-005
vernier = 0.123317
Gmin = 4.36689e-005
vernier = 0.164423
vernier = 0.21923
Gmin = 2.83463e-005
vernier = 0.292307
vernier = 0.389743
Gmin = 1.44149e-005
vernier = 0.519657
Gmin = 4.91689e-006
vernier = 0.692876
vernier = 0.923834
Gmin = 8.94623e-007
vernier = 1
Gmin = 1.00587e-007
Gmin = 1.08004e-008
Gmin = 1.15968e-009
Gmin = 1.2452e-010
Gmin = 1.33702e-011
Gmin = 1.43562e-012
Gmin = 1.54148e-013
Gmin = 0
Gmin stepping succeeded in finding the operating point.

Direct Newton iteration failed to find .op point.  (Use ".option noopiter" to skip.)
Starting Gmin stepping
Gmin = 10
Gmin = 1.07374
Gmin = 0.115292
Gmin = 0.0123794
Gmin = 0.00132923
Gmin = 0.000142725
vernier = 0.5
vernier = 0.25
vernier = 0.125
Gmin = 8.33655e-005
vernier = 0.0625
vernier = 0.03125
vernier = 0.0416667
Gmin = 8.09936e-005
vernier = 0.0555555
Gmin = 7.1533e-005
vernier = 0.074074
vernier = 0.0987653
vernier = 0.0493827
vernier = 0.0246913
Gmin = 6.40756e-005
vernier = 0.0123457
vernier = 0.0164609
Gmin = 6.21959e-005
vernier = 0.0219478
Gmin = 5.92064e-005
vernier = 0.0292638
vernier = 0.0390184
Gmin = 5.45144e-005
vernier = 0.0520245
vernier = 0.0693659
Gmin = 4.7805e-005
vernier = 0.0924879
Gmin = 3.89083e-005
vernier = 0.123317
vernier = 0.164423
Gmin = 2.76021e-005
vernier = 0.21923
vernier = 0.292307
Gmin = 1.60565e-005
vernier = 0.389743
Gmin = 6.93192e-006
vernier = 0.519657
vernier = 0.692876
Gmin = 1.75818e-006
vernier = 0.923834
vernier = 0.461917
vernier = 0.230959
vernier = 0.115479
vernier = 0.0577396
vernier = 0.0288698
vernier = 0.0144349
Gmin = 1.03768e-006
vernier = 0.0192465
vernier = 0.00962327
vernier = 0.00481163
vernier = 0.00240582
vernier = 0.00120291
Gmin = 1.01916e-006
vernier = 0.000601454
vernier = 0.000451091
Gmin = 0
Gmin stepping failed

Starting source stepping with srcstepmethod=0
Source Step = 3.0303%
Source Step = 33.3333%
Source Step = 63.6364%
Source Step = 88.6364%
vernier = 0.0625
Source Step = 87.8995%
Starting source stepping with srcstepmethod=1
Source Step = 3.0303%
Source Step = 33.3333%
Source Step = 63.6364%
Source Step = 88.6364%
vernier = 0.0625
Source stepping failed

Pseudo Transient succeeded in finding the operating point.
Direct Newton iteration failed to find .op point.  (Use ".option noopiter" to skip.)
Starting Gmin stepping
Gmin = 10
Gmin = 1.07374
Gmin = 0.115292
Gmin = 0.0123794
Gmin = 0.00132923
vernier = 0.5
Gmin = 0.000275318
vernier = 0.25
vernier = 0.125
vernier = 0.166667
Gmin = 0.000239944
vernier = 0.222222
Gmin = 0.0001493
vernier = 0.296296
vernier = 0.395061
vernier = 0.197531
Gmin = 8.7789e-005
vernier = 0.0987653
vernier = 0.0493827
vernier = 0.0246913
Gmin = 8.41064e-005
vernier = 0.0329218
vernier = 0.0438957
Gmin = 7.73829e-005
vernier = 0.0585276
Gmin = 6.78945e-005
vernier = 0.0780367
vernier = 0.104049
Gmin = 5.45604e-005
vernier = 0.138732
vernier = 0.184976
Gmin = 3.85889e-005
vernier = 0.246634
Gmin = 2.24917e-005
vernier = 0.328846
vernier = 0.438461
Gmin = 9.23547e-006
vernier = 0.584614
vernier = 0.779486
Gmin = 2.31747e-006
vernier = 1
Gmin = 2.98037e-007
vernier = 0.5
vernier = 0.25
vernier = 0.125
vernier = 0.0625
vernier = 0.03125
vernier = 0.015625
Gmin = 1.52595e-007
vernier = 0.0078125
vernier = 0.0104167
Gmin = 1.4955e-007
vernier = 0.0138889
vernier = 0.0185185
Gmin = 1.44372e-007
vernier = 0.0246913
Gmin = 1.36591e-007
vernier = 0.0329218
vernier = 0.0438957
Gmin = 1.24481e-007
vernier = 0.0585276
vernier = 0.0780367
Gmin = 1.07397e-007
vernier = 0.104049
Gmin = 8.5214e-008
vernier = 0.138732
vernier = 0.184976
Gmin = 5.79609e-008
vernier = 0.246634
vernier = 0.328846
Gmin = 3.15745e-008
vernier = 0.438461
Gmin = 1.23326e-008
vernier = 0.584614
vernier = 0.779486
Gmin = 2.66877e-009
vernier = 1
Gmin = 3.13609e-010
Gmin = 3.36736e-011
Gmin = 3.61567e-012
Gmin = 3.8823e-013
Gmin = 0
Gmin stepping succeeded in finding the operating point.

Direct Newton iteration failed to find .op point.  (Use ".option noopiter" to skip.)
Starting Gmin stepping
Gmin = 10
Gmin = 1.07374
Gmin = 0.115292
Gmin = 0.0123794
Gmin = 0.00132923
vernier = 0.5
Gmin = 0.000275318
vernier = 0.25
vernier = 0.125
vernier = 0.0625
vernier = 0.03125
Gmin = 0.000284803
vernier = 0.0416667
Gmin = 0.000259432
vernier = 0.0555555
vernier = 0.074074
Gmin = 0.000221924
vernier = 0.0987653
vernier = 0.131687
Gmin = 0.00017321
vernier = 0.175583
Gmin = 0.000117588
vernier = 0.23411
vernier = 0.117055
vernier = 0.0585276
Gmin = 8.59655e-005
vernier = 0.0292638
vernier = 0.0146319
vernier = 0.00731595
Gmin = 8.48746e-005
vernier = 0.00975459
vernier = 0.0130061
Gmin = 8.27988e-005
vernier = 0.0173415
Gmin = 7.96365e-005
vernier = 0.023122
vernier = 0.0308293
Gmin = 7.46028e-005
vernier = 0.0411057
vernier = 0.0548076
Gmin = 6.72395e-005
vernier = 0.0730768
Gmin = 5.71226e-005
vernier = 0.0974357
vernier = 0.129914
Gmin = 4.35082e-005
vernier = 0.173219
vernier = 0.230959
Gmin = 2.82868e-005
vernier = 0.307945
Gmin = 1.44813e-005
vernier = 0.410593
vernier = 0.547457
Gmin = 4.82339e-006
vernier = 0.729942
vernier = 0.973256
Gmin = 8.83076e-007
vernier = 1
vernier = 0.5
Gmin = 1.51368e-007
vernier = 0.25
vernier = 0.125
vernier = 0.0625
vernier = 0.03125
vernier = 0.015625
Gmin = 1.48446e-007
vernier = 0.0208333
vernier = 0.0277778
Gmin = 1.39962e-007
vernier = 0.037037
vernier = 0.0493827
Gmin = 1.27446e-007
vernier = 0.0658435
Gmin = 1.10019e-007
vernier = 0.0877914
vernier = 0.117055
Gmin = 8.60571e-008
vernier = 0.156073
vernier = 0.208098
Gmin = 5.83368e-008
vernier = 0.277464
Gmin = 3.18479e-008
vernier = 0.369952
vernier = 0.493269
Gmin = 1.17644e-008
vernier = 0.657691
vernier = 0.876922
Gmin = 2.51612e-009
vernier = 1
Gmin = 2.98488e-010
Gmin = 3.205e-011
Gmin = 3.44134e-012
Gmin = 3.69511e-013
Gmin = 0
Gmin stepping succeeded in finding the operating point.

Direct Newton iteration failed to find .op point.  (Use ".option noopiter" to skip.)
Starting Gmin stepping
Gmin = 10
Gmin = 1.07374
Gmin = 0.115292
Gmin = 0.0123794
Gmin = 0.00132923
vernier = 0.5
Gmin = 0.000275318
vernier = 0.25
vernier = 0.125
vernier = 0.0625
vernier = 0.03125
Gmin = 0.000284803
vernier = 0.015625
vernier = 0.0208333
Gmin = 0.000275699
vernier = 0.0277778
vernier = 0.037037
Gmin = 0.000256971
vernier = 0.0493827
Gmin = 0.000230091
vernier = 0.0658435
vernier = 0.0877914
Gmin = 0.000191267
vernier = 0.117055
vernier = 0.156073
Gmin = 0.000142685
vernier = 0.208098
Gmin = 9.03086e-005
vernier = 0.277464
vernier = 0.138732
vernier = 0.184976
Gmin = 6.64957e-005
vernier = 0.246634
vernier = 0.328846
Gmin = 3.74691e-005
vernier = 0.438461
Gmin = 1.50055e-005
vernier = 0.584614
vernier = 0.779486
Gmin = 3.4967e-006
vernier = 1
Gmin = 4.29857e-007
Gmin = 4.61556e-008
Gmin = 4.95592e-009
Gmin = 5.32138e-010
Gmin = 5.71378e-011
Gmin = 6.13513e-012
vernier = 0.5
Gmin = 1.14367e-012
vernier = 0.666667
Gmin = 2.83146e-013
vernier = 0.888888
vernier = 1
Gmin = 0
Gmin stepping succeeded in finding the operating point.

Direct Newton iteration failed to find .op point.  (Use ".option noopiter" to skip.)
Starting Gmin stepping
Gmin = 10
Gmin = 1.07374
Gmin = 0.115292
Gmin = 0.0123794
Gmin = 0.00132923
vernier = 0.5
Gmin = 0.000275318
vernier = 0.25
vernier = 0.125
vernier = 0.0625
Gmin = 0.000273984
vernier = 0.0833333
vernier = 0.111111
Gmin = 0.000219566
vernier = 0.148148
vernier = 0.197531
Gmin = 0.000154941
vernier = 0.263374
Gmin = 8.85178e-005
vernier = 0.131687
vernier = 0.0658435
vernier = 0.0329218
vernier = 0.0164609
Gmin = 8.53453e-005
vernier = 0.00823044
vernier = 0.0109739
Gmin = 8.37812e-005
vernier = 0.0146319
vernier = 0.0195092
Gmin = 8.09002e-005
vernier = 0.0260122
Gmin = 7.64379e-005
vernier = 0.034683
vernier = 0.046244
Gmin = 6.9666e-005
vernier = 0.0616586
vernier = 0.0822114
Gmin = 6.01657e-005
vernier = 0.109615
Gmin = 4.7475e-005
vernier = 0.146154
vernier = 0.194871
Gmin = 3.23025e-005
vernier = 0.259828
vernier = 0.346438
Gmin = 1.76683e-005
vernier = 0.461917
Gmin = 6.75334e-006
vernier = 0.615889
vernier = 0.821185
Gmin = 1.46421e-006
vernier = 1
Gmin = 1.75369e-007
Gmin = 1.88301e-008
Gmin = 2.02186e-009
Gmin = 2.17096e-010
Gmin = 2.33105e-011
Gmin = 2.50294e-012
Gmin = 2.68752e-013
Gmin = 0
Gmin stepping succeeded in finding the operating point.


Date: Thu Sep 05 21:39:47 2019
Total elapsed time: 201.205 seconds.

tnom = 27
temp = 27
method = trap
totiter = 5419116
traniter = 0
tranpoints = 0
accept = 0
rejected = 311731
matrix size = 284
fillins = 368
solver = Normal
Thread vector: 25.2/13.2[4] 0.0/0.0[4] 9.1/4.5[4] 1.6/3.6[1]  2592/500
Matrix Compiler1: 35.88 KB object code size  10.7/4.3/[3.4]
Matrix Compiler2: 29.73 KB object code size  5.9/5.0/[2.5]


